55
node: None  step: -1 potential:     -188.131530 chi_differ:        0.000000 
Au        39.932500        37.616800        36.029100
Au        37.890000        39.636200        35.103600
Au        37.253800        38.112700        39.476300
Au        39.862700        39.074400        38.221700
Au        39.282800        36.387600        38.426200
Au        35.470800        39.159500        35.789100
Au        35.260500        39.627800        38.260000
Au        37.408000        37.778500        36.904100
Au        38.522200        42.231200        35.422800
Au        37.691900        40.506100        37.719600
Au        38.341200        42.042900        39.949300
Au        35.877900        41.636700        36.259000
Au        35.683400        42.212600        39.067300
Au        37.489800        43.450500        37.552000
Au        39.526200        44.543500        39.075700
Au        39.660400        44.487800        36.379600
Au        38.499500        36.257000        40.884900
Au        37.257000        38.073800        42.380700
Au        39.143500        39.387900        44.036100
Au        38.990300        39.528900        41.025100
Au        39.214100        41.748500        42.735300
Au        36.258800        40.239400        40.762900
Au        36.669000        42.735300        41.896800
Au        39.151600        44.192100        41.672400
Au        36.898800        40.510100        43.281900
Au        39.960200        37.221700        42.755900
Au        36.979400        44.458500        39.999800
Au        42.320600        38.886300        36.727600
Au        44.845400        40.693400        39.197100
Au        41.845500        36.575000        38.031000
Au        44.110900        38.116200        38.544500
Au        40.404800        40.296900        35.584800
Au        41.353000        42.822100        35.360600
Au        42.974200        40.715900        34.868400
Au        42.246500        40.158400        39.287700
Au        42.987900        41.773500        37.255800
Au        40.169200        42.015500        37.756200
Au        43.596700        43.123100        39.570100
Au        41.870800        44.198200        37.871400
Au        44.766500        39.917400        36.676300
Au        41.172500        37.854500        40.307400
Au        40.954800        35.336600        40.602700
Au        43.396600        36.208500        40.239000
Au        42.597600        37.091200        42.631300
Au        43.630100        39.594000        43.751700
Au        43.952200        38.783000        41.114800
Au        41.515000        38.386700        44.688500
Au        41.412500        39.850700        42.243300
Au        41.045900        42.305900        40.451600
Au        43.637400        42.239500        44.125800
Au        41.737400        44.856700        40.657700
Au        43.804700        44.028700        42.089900
Au        41.490400        43.241100        42.957500
Au        41.340800        41.059500        44.611000
Au        43.579500        41.433000        41.633500
